# HF/6-31G(d)

title

0 1
  C    13.43799973    18.83499908    15.08699989
  H    13.12600040    17.79800034    15.25000000
  H    14.44099998    18.95499992    15.45499992
  O    12.53600025    19.84499931    15.76000023
  C    12.27499962    19.61199951    17.10199928
  H    11.74300003    20.40600014    17.49399948
  H    13.18000031    19.41200066    17.71599960
  H    11.53299999    18.84700012    17.17300034
  C    13.47999954    19.13100052    13.58500004
  H    12.61499977    18.81999969    13.08800030
  H    14.30900002    18.68700027    13.06099987
  O    13.60599995    20.54800034    13.47000027
  H    13.22999954    20.86599922    14.27000046
  C    13.98403835    13.68663216    16.58932686
  H    13.09303856    13.08263206    16.80432701
  H    14.25703907    14.09263229    17.60832787
  O    13.59203815    14.67063236    15.64232731
  C    12.44703865    15.50563240    15.90632629
  H    12.62303829    16.44763184    15.40832710
  H    12.38203907    15.58063221    17.02532768
  H    11.52103901    15.03163242    15.64932728
  C    15.10403824    12.81463242    15.99132729
  H    14.62403870    12.01263237    15.32332706
  H    15.69903851    12.42363262    16.81432724
  O    15.81303883    13.73263264    15.25932693
  H    15.16403866    14.41763210    15.21232700

