# HF/6-31G(d)

title

0 1
  C    15.84099960    12.23099995    16.81900024
  H    16.68899918    12.78299999    17.18700027
  H    15.91800022    12.06299973    15.70600033
  H    15.78199959    11.22799969    17.34300041
  C    14.52799988    12.96899986    17.05100060
  H    14.62899971    13.89900017    16.40200043
  H    14.44600010    13.28800011    18.12800026
  C    13.21899986    12.19699955    16.56200027
  H    13.17199993    11.23400021    17.00699997
  H    13.44900036    11.92399979    15.48900032
  C    11.89900017    12.92899990    16.73800087
  H    12.07900047    13.79500008    16.05900002
  H    11.82299995    13.35000038    17.83499908
  C    10.63300037    12.19099998    16.37400055
  H    10.38399982    11.46100044    17.12400055
  H    10.80399990    11.61900043    15.46000004
  C     9.50399971    13.27499962    16.26899910
  H     9.33199978    13.83699989    17.20899963
  H     8.59099960    12.80099964    15.85799980
  H     9.71500015    13.93400002    15.47200012
  C    15.96449375    17.77869987    15.08573437
  H    16.80949402    17.42670059    14.47473431
  H    16.36849403    18.32970047    15.93173409
  H    15.37649345    18.34469986    14.43773460
  C    15.13349342    16.69270134    15.69673443
  H    15.62249470    16.05870056    16.39773369
  H    14.80349350    16.00670052    14.89873409
  C    13.90649414    17.30870056    16.37473488
  H    13.34649372    17.96470070    15.68373394
  H    14.30849361    17.94670105    17.16273499
  C    12.85949421    16.20070076    16.79873466
  H    13.10849380    15.69070053    17.68873405
  H    12.77749348    15.54870033    15.96873379
  C    11.40549374    16.66270065    17.04573441
  H    11.07049370    17.26370049    16.15173531
  H    11.44449425    17.43869972    17.85573387
  C    10.39249420    15.59270096    17.33173370
  H    10.44049358    14.93070030    16.42373466
  H     9.41449356    16.08870125    17.45773506
  H    10.70649338    14.93570137    18.18073463

