# HF/6-31G(d)

title

0 1
  C    13.43799973    18.83499908    15.08699989
  H    13.12600040    17.79800034    15.25000000
  H    14.44099998    18.95499992    15.45499992
  O    12.53600025    19.84499931    15.76000023
  C    12.27499962    19.61199951    17.10199928
  H    11.74300003    20.40600014    17.49399948
  H    13.18000031    19.41200066    17.71599960
  H    11.53299999    18.84700012    17.17300034
  C    13.47999954    19.13100052    13.58500004
  H    12.61499977    18.81999969    13.08800030
  H    14.30900002    18.68700027    13.06099987
  O    13.60599995    20.54800034    13.47000027
  H    13.22999954    20.86599922    14.27000046
  C    14.02433586    13.48888969    16.62027740
  H    13.13333607    12.88488960    16.83527756
  H    14.29733658    13.89488983    17.63927841
  O    13.63233566    14.47288990    15.67327785
  C    12.48733616    15.30788994    15.93727684
  H    12.66333580    16.24988937    15.43927765
  H    12.42233658    15.38288975    17.05627823
  H    11.56133652    14.83388996    15.68027782
  C    15.14433575    12.61688995    16.02227783
  H    14.66433620    11.81488991    15.35427761
  H    15.73933601    12.22589016    16.84527779
  O    15.85333633    13.53489017    15.29027748
  H    15.20433617    14.21988964    15.24327755

