# HF/6-31G(d)

title

0 1
  C    13.43799973    18.83499908    15.08699989
  H    13.12600040    17.79800034    15.25000000
  H    14.44099998    18.95499992    15.45499992
  O    12.53600025    19.84499931    15.76000023
  C    12.27499962    19.61199951    17.10199928
  H    11.74300003    20.40600014    17.49399948
  H    13.18000031    19.41200066    17.71599960
  H    11.53299999    18.84700012    17.17300034
  C    13.47999954    19.13100052    13.58500004
  H    12.61499977    18.81999969    13.08800030
  H    14.30900002    18.68700027    13.06099987
  O    13.60599995    20.54800034    13.47000027
  H    13.22999954    20.86599922    14.27000046
  C    14.06463337    13.29114628    16.65122795
  H    13.17363358    12.68714619    16.86622810
  H    14.33763409    13.69714642    17.67022896
  O    13.67263317    14.27514648    15.70422935
  C    12.52763367    15.11014652    15.96822834
  H    12.70363331    16.05214691    15.47022915
  H    12.46263409    15.18514633    17.08722878
  H    11.60163403    14.63614655    15.71122932
  C    15.18463326    12.41914654    16.05322838
  H    14.70463371    11.61714649    15.38522911
  H    15.77963352    12.02814674    16.87622833
  O    15.89363384    13.33714676    15.32122898
  H    15.24463367    14.02214622    15.27422905

