# HF/6-31G(d)

title

0 1
  C    15.84099960    12.23099995    16.81900024
  H    16.68899918    12.78299999    17.18700027
  H    15.91800022    12.06299973    15.70600033
  H    15.78199959    11.22799969    17.34300041
  C    14.52799988    12.96899986    17.05100060
  H    14.62899971    13.89900017    16.40200043
  H    14.44600010    13.28800011    18.12800026
  C    13.21899986    12.19699955    16.56200027
  H    13.17199993    11.23400021    17.00699997
  H    13.44900036    11.92399979    15.48900032
  C    11.89900017    12.92899990    16.73800087
  H    12.07900047    13.79500008    16.05900002
  H    11.82299995    13.35000038    17.83499908
  C    10.63300037    12.19099998    16.37400055
  H    10.38399982    11.46100044    17.12400055
  H    10.80399990    11.61900043    15.46000004
  C     9.50399971    13.27499962    16.26899910
  H     9.33199978    13.83699989    17.20899963
  H     8.59099960    12.80099964    15.85799980
  H     9.71500015    13.93400002    15.47200012
  C    16.00006104    17.99624634    15.07248592
  H    16.84506035    17.64424706    14.46148586
  H    16.40406036    18.54724693    15.91848564
  H    15.41206074    18.56224632    14.42448616
  C    15.16906071    16.91024780    15.68348598
  H    15.65806198    16.27624702    16.38448524
  H    14.83906078    16.22424698    14.88548565
  C    13.94206142    17.52624702    16.36148643
  H    13.38206100    18.18224716    15.67048550
  H    14.34406090    18.16424751    17.14948654
  C    12.89506149    16.41824722    16.78548622
  H    13.14406109    15.90824795    17.67548561
  H    12.81306076    15.76624775    15.95548534
  C    11.44106102    16.88024712    17.03248596
  H    11.10606098    17.48124695    16.13848686
  H    11.48006153    17.65624619    17.84248543
  C    10.42806149    15.81024837    17.31848526
  H    10.47606087    15.14824772    16.41048622
  H     9.45006084    16.30624771    17.44448662
  H    10.74206066    15.15324879    18.16748619

