# HF/6-31G(d)

title

0 1
  C    15.84099960    12.23099995    16.81900024
  H    16.68899918    12.78299999    17.18700027
  H    15.91800022    12.06299973    15.70600033
  H    15.78199959    11.22799969    17.34300041
  C    14.52799988    12.96899986    17.05100060
  H    14.62899971    13.89900017    16.40200043
  H    14.44600010    13.28800011    18.12800026
  C    13.21899986    12.19699955    16.56200027
  H    13.17199993    11.23400021    17.00699997
  H    13.44900036    11.92399979    15.48900032
  C    11.89900017    12.92899990    16.73800087
  H    12.07900047    13.79500008    16.05900002
  H    11.82299995    13.35000038    17.83499908
  C    10.63300037    12.19099998    16.37400055
  H    10.38399982    11.46100044    17.12400055
  H    10.80399990    11.61900043    15.46000004
  C     9.50399971    13.27499962    16.26899910
  H     9.33199978    13.83699989    17.20899963
  H     8.59099960    12.80099964    15.85799980
  H     9.71500015    13.93400002    15.47200012
  C    16.03562927    18.21379471    15.05923748
  H    16.88062859    17.86179543    14.44823742
  H    16.43962860    18.76479530    15.90523720
  H    15.44762802    18.77979469    14.41123772
  C    15.20462799    17.12779617    15.67023754
  H    15.69362926    16.49379539    16.37123680
  H    14.87462807    16.44179535    14.87223721
  C    13.97762871    17.74379539    16.34823799
  H    13.41762829    18.39979553    15.65723705
  H    14.37962818    18.38179588    17.13623810
  C    12.93062878    16.63579559    16.77223778
  H    13.17962837    16.12579536    17.66223717
  H    12.84862804    15.98379517    15.94223690
  C    11.47662830    17.09779549    17.01923752
  H    11.14162827    17.69879532    16.12523651
  H    11.51562881    17.87379456    17.82923698
  C    10.46362877    16.02779579    17.30523682
  H    10.51162815    15.36579514    16.39723778
  H     9.48562813    16.52379608    17.43123817
  H    10.77762794    15.37079620    18.15423775

