# HF/6-31G(d)

title

0 1
  C    13.43799973    18.83499908    15.08699989
  H    13.12600040    17.79800034    15.25000000
  H    14.44099998    18.95499992    15.45499992
  O    12.53600025    19.84499931    15.76000023
  C    12.27499962    19.61199951    17.10199928
  H    11.74300003    20.40600014    17.49399948
  H    13.18000031    19.41200066    17.71599960
  H    11.53299999    18.84700012    17.17300034
  C    13.47999954    19.13100052    13.58500004
  H    12.61499977    18.81999969    13.08800030
  H    14.30900002    18.68700027    13.06099987
  O    13.60599995    20.54800034    13.47000027
  H    13.22999954    20.86599922    14.27000046
  C    14.10493088    13.09340382    16.68218040
  H    13.21393108    12.48940372    16.89718056
  H    14.37793159    13.49940395    17.70118141
  O    13.71293068    14.07740402    15.73517990
  C    12.56793118    14.91240406    15.99917889
  H    12.74393082    15.85440445    15.50117970
  H    12.50293159    14.98740387    17.11818123
  H    11.64193153    14.43840408    15.74217987
  C    15.22493076    12.22140408    16.08418083
  H    14.74493122    11.41940403    15.41617966
  H    15.81993103    11.83040428    16.90718079
  O    15.93393135    13.13940430    15.35217953
  H    15.28493118    13.82440376    15.30517960

