# HF/6-31G(d)

title

0 1
  C    15.84099960    12.23099995    16.81900024
  H    16.68899918    12.78299999    17.18700027
  H    15.91800022    12.06299973    15.70600033
  H    15.78199959    11.22799969    17.34300041
  C    14.52799988    12.96899986    17.05100060
  H    14.62899971    13.89900017    16.40200043
  H    14.44600010    13.28800011    18.12800026
  C    13.21899986    12.19699955    16.56200027
  H    13.17199993    11.23400021    17.00699997
  H    13.44900036    11.92399979    15.48900032
  C    11.89900017    12.92899990    16.73800087
  H    12.07900047    13.79500008    16.05900002
  H    11.82299995    13.35000038    17.83499908
  C    10.63300037    12.19099998    16.37400055
  H    10.38399982    11.46100044    17.12400055
  H    10.80399990    11.61900043    15.46000004
  C     9.50399971    13.27499962    16.26899910
  H     9.33199978    13.83699989    17.20899963
  H     8.59099960    12.80099964    15.85799980
  H     9.71500015    13.93400002    15.47200012
  C    16.14233017    18.86643600    15.01949120
  H    16.98732948    18.51443672    14.40849113
  H    16.54632950    19.41743660    15.86549091
  H    15.55433083    19.43243599    14.37149143
  C    15.31133080    17.78043747    15.63049126
  H    15.80033207    17.14643669    16.33148956
  H    14.98133087    17.09443665    14.83249092
  C    14.08433151    18.39643669    16.30849075
  H    13.52433109    19.05243683    15.61749077
  H    14.48633099    19.03443718    17.09649086
  C    13.03733158    17.28843689    16.73249054
  H    13.28633118    16.77843666    17.62248993
  H    12.95533085    16.63643646    15.90249062
  C    11.58333111    17.75043678    16.97949028
  H    11.24833107    18.35143661    16.08549118
  H    11.62233162    18.52643585    17.78948975
  C    10.57033157    16.68043709    17.26548958
  H    10.61833096    16.01843643    16.35749054
  H     9.59233093    17.17643738    17.39149094
  H    10.88433075    16.02343750    18.11449051

