# HF/6-31G(d)

title

0 1
  C    13.43799973    18.83499908    15.08699989
  H    13.12600040    17.79800034    15.25000000
  H    14.44099998    18.95499992    15.45499992
  O    12.53600025    19.84499931    15.76000023
  C    12.27499962    19.61199951    17.10199928
  H    11.74300003    20.40600014    17.49399948
  H    13.18000031    19.41200066    17.71599960
  H    11.53299999    18.84700012    17.17300034
  C    13.47999954    19.13100052    13.58500004
  H    12.61499977    18.81999969    13.08800030
  H    14.30900002    18.68700027    13.06099987
  O    13.60599995    20.54800034    13.47000027
  H    13.22999954    20.86599922    14.27000046
  C    14.22582245    12.50017548    16.77503204
  H    13.33482265    11.89617538    16.99003220
  H    14.49882317    12.90617561    17.79403305
  O    13.83382225    13.48417568    15.82803345
  C    12.68882275    14.31917572    16.09203148
  H    12.86482239    15.26117611    15.59403324
  H    12.62382317    14.39417553    17.21103287
  H    11.76282310    13.84517574    15.83503342
  C    15.34582233    11.62817574    16.17703247
  H    14.86582279    10.82617569    15.50903320
  H    15.94082260    11.23717594    17.00003242
  O    16.05482292    12.54617596    15.44503307
  H    15.40582275    13.23117542    15.39803314

