# HF/6-31G(d)

title

0 1
  C    13.43799973    18.83499908    15.08699989
  H    13.12600040    17.79800034    15.25000000
  H    14.44099998    18.95499992    15.45499992
  O    12.53600025    19.84499931    15.76000023
  C    12.27499962    19.61199951    17.10199928
  H    11.74300003    20.40600014    17.49399948
  H    13.18000031    19.41200066    17.71599960
  H    11.53299999    18.84700012    17.17300034
  C    13.47999954    19.13100052    13.58500004
  H    12.61499977    18.81999969    13.08800030
  H    14.30900002    18.68700027    13.06099987
  O    13.60599995    20.54800034    13.47000027
  H    13.22999954    20.86599922    14.27000046
  C    14.30641651    12.10469055    16.83693504
  H    13.41541672    11.50069046    17.05193520
  H    14.57941723    12.51069069    17.85593605
  O    13.91441631    13.08869076    15.88993549
  C    12.76941681    13.92369080    16.15393448
  H    12.94541645    14.86569118    15.65593529
  H    12.70441723    13.99869061    17.27293587
  H    11.84341717    13.44969082    15.89693546
  C    15.42641640    11.23269081    16.23893547
  H    14.94641685    10.43069077    15.57093525
  H    16.02141762    10.84169102    17.06193542
  O    16.13541794    12.15069103    15.50693512
  H    15.48641682    12.83569050    15.45993519

