# HF/6-31G(d)

title

0 1
  C    13.43799973    18.83499908    15.08699989
  H    13.12600040    17.79800034    15.25000000
  H    14.44099998    18.95499992    15.45499992
  O    12.53600025    19.84499931    15.76000023
  C    12.27499962    19.61199951    17.10199928
  H    11.74300003    20.40600014    17.49399948
  H    13.18000031    19.41200066    17.71599960
  H    11.53299999    18.84700012    17.17300034
  C    13.47999954    19.13100052    13.58500004
  H    12.61499977    18.81999969    13.08800030
  H    14.30900002    18.68700027    13.06099987
  O    13.60599995    20.54800034    13.47000027
  H    13.22999954    20.86599922    14.27000046
  C    14.38701153    11.70920467    16.89883804
  H    13.49601173    11.10520458    17.11383820
  H    14.66001225    12.11520481    17.91783905
  O    13.99501133    12.69320488    15.95183754
  C    12.85001183    13.52820492    16.21583748
  H    13.02601147    14.47020531    15.71783733
  H    12.78501225    13.60320473    17.33483887
  H    11.92401218    13.05420494    15.95883751
  C    15.50701141    10.83720493    16.30083847
  H    15.02701187    10.03520489    15.63283730
  H    16.10201073    10.44620514    17.12383842
  O    16.21601105    11.75520515    15.56883717
  H    15.56701183    12.44020462    15.52183723

