# HF/6-31G(d)

title

0 1
  C    15.84099960    12.23099995    16.81900024
  H    16.68899918    12.78299999    17.18700027
  H    15.91800022    12.06299973    15.70600033
  H    15.78199959    11.22799969    17.34300041
  C    14.52799988    12.96899986    17.05100060
  H    14.62899971    13.89900017    16.40200043
  H    14.44600010    13.28800011    18.12800026
  C    13.21899986    12.19699955    16.56200027
  H    13.17199993    11.23400021    17.00699997
  H    13.44900036    11.92399979    15.48900032
  C    11.89900017    12.92899990    16.73800087
  H    12.07900047    13.79500008    16.05900002
  H    11.82299995    13.35000038    17.83499908
  C    10.63300037    12.19099998    16.37400055
  H    10.38399982    11.46100044    17.12400055
  H    10.80399990    11.61900043    15.46000004
  C     9.50399971    13.27499962    16.26899910
  H     9.33199978    13.83699989    17.20899963
  H     8.59099960    12.80099964    15.85799980
  H     9.71500015    13.93400002    15.47200012
  C    16.28459930    19.73662567    14.96649647
  H    17.12959862    19.38462639    14.35549641
  H    16.68859863    20.28762627    15.81249619
  H    15.69659996    20.30262566    14.31849670
  C    15.45359993    18.65062714    15.57749653
  H    15.94260120    18.01662636    16.27849579
  H    15.12360001    17.96462631    14.77949619
  C    14.22660065    19.26662636    16.25549698
  H    13.66660023    19.92262650    15.56449604
  H    14.62860012    19.90462685    17.04349709
  C    13.17960072    18.15862656    16.67949677
  H    13.42860031    17.64862633    17.56949615
  H    13.09759998    17.50662613    15.84949589
  C    11.72560024    18.62062645    16.92649651
  H    11.39060020    19.22162628    16.03249550
  H    11.76460075    19.39662552    17.73649597
  C    10.71260071    17.55062675    17.21249580
  H    10.76060009    16.88862610    16.30449677
  H     9.73460007    18.04662704    17.33849716
  H    11.02659988    16.89362717    18.06149673

