# HF/6-31G(d)

title

0 1
  C    13.43799973    18.83499908    15.08699989
  H    13.12600040    17.79800034    15.25000000
  H    14.44099998    18.95499992    15.45499992
  O    12.53600025    19.84499931    15.76000023
  C    12.27499962    19.61199951    17.10199928
  H    11.74300003    20.40600014    17.49399948
  H    13.18000031    19.41200066    17.71599960
  H    11.53299999    18.84700012    17.17300034
  C    13.47999954    19.13100052    13.58500004
  H    12.61499977    18.81999969    13.08800030
  H    14.30900002    18.68700027    13.06099987
  O    13.60599995    20.54800034    13.47000027
  H    13.22999954    20.86599922    14.27000046
  C    14.46760559    11.31371880    16.96073914
  H    13.57660580    10.70971870    17.17573929
  H    14.74060631    11.71971893    17.97974014
  O    14.07560539    12.29771900    16.01374054
  C    12.93060589    13.13271904    16.27773857
  H    13.10660553    14.07471943    15.77973938
  H    12.86560631    13.20771885    17.39673996
  H    12.00460625    12.65871906    16.02074051
  C    15.58760548    10.44171906    16.36273956
  H    15.10760593     9.63971901    15.69473934
  H    16.18260574    10.05071926    17.18573952
  O    16.29660606    11.35971928    15.63073921
  H    15.64760590    12.04471874    15.58373928

