# HF/6-31G(d)

title

0 1
  C    15.84099960    12.23099995    16.81900024
  H    16.68899918    12.78299999    17.18700027
  H    15.91800022    12.06299973    15.70600033
  H    15.78199959    11.22799969    17.34300041
  C    14.52799988    12.96899986    17.05100060
  H    14.62899971    13.89900017    16.40200043
  H    14.44600010    13.28800011    18.12800026
  C    13.21899986    12.19699955    16.56200027
  H    13.17199993    11.23400021    17.00699997
  H    13.44900036    11.92399979    15.48900032
  C    11.89900017    12.92899990    16.73800087
  H    12.07900047    13.79500008    16.05900002
  H    11.82299995    13.35000038    17.83499908
  C    10.63300037    12.19099998    16.37400055
  H    10.38399982    11.46100044    17.12400055
  H    10.80399990    11.61900043    15.46000004
  C     9.50399971    13.27499962    16.26899910
  H     9.33199978    13.83699989    17.20899963
  H     8.59099960    12.80099964    15.85799980
  H     9.71500015    13.93400002    15.47200012
  C    16.46243668    20.82436180    14.90025234
  H    17.30743599    20.47236252    14.28925228
  H    16.86643600    21.37536240    15.74625206
  H    15.87443638    21.39036179    14.25225258
  C    15.63143635    19.73836327    15.51125240
  H    16.12043762    19.10436249    16.21225166
  H    15.30143642    19.05236244    14.71325207
  C    14.40443707    20.35436249    16.18925285
  H    13.84443665    21.01036263    15.49825191
  H    14.80643654    20.99236298    16.97725296
  C    13.35743713    19.24636269    16.61325264
  H    13.60643673    18.73636246    17.50325203
  H    13.27543640    18.59436226    15.78325176
  C    11.90343666    19.70836258    16.86025238
  H    11.56843662    20.30936241    15.96625233
  H    11.94243717    20.48436165    17.67025185
  C    10.89043713    18.63836288    17.14625168
  H    10.93843651    17.97636223    16.23825264
  H     9.91243649    19.13436317    17.27225304
  H    11.20443630    17.98136330    17.99525261

