# HF/6-31G(d)

title

0 1
  C    13.43799973    18.83499908    15.08699989
  H    13.12600040    17.79800034    15.25000000
  H    14.44099998    18.95499992    15.45499992
  O    12.53600025    19.84499931    15.76000023
  C    12.27499962    19.61199951    17.10199928
  H    11.74300003    20.40600014    17.49399948
  H    13.18000031    19.41200066    17.71599960
  H    11.53299999    18.84700012    17.17300034
  C    13.47999954    19.13100052    13.58500004
  H    12.61499977    18.81999969    13.08800030
  H    14.30900002    18.68700027    13.06099987
  O    13.60599995    20.54800034    13.47000027
  H    13.22999954    20.86599922    14.27000046
  C    14.58849812    10.72049141    17.05359268
  H    13.69749832    10.11649132    17.26859283
  H    14.86149883    11.12649155    18.07259369
  O    14.19649792    11.70449162    16.10659218
  C    13.05149841    12.53949165    16.37059212
  H    13.22749805    13.48149204    15.87259293
  H    12.98649883    12.61449146    17.48959351
  H    12.12549877    12.06549168    16.11359215
  C    15.70849800     9.84849167    16.45559311
  H    15.22849846     9.04649162    15.78759289
  H    16.30349731     9.45749187    17.27859306
  O    16.41749763    10.76649189    15.72359276
  H    15.76849842    11.45149136    15.67659283

