# HF/6-31G(d)

title

0 1
  C    13.43799973    18.83499908    15.08699989
  H    13.12600040    17.79800034    15.25000000
  H    14.44099998    18.95499992    15.45499992
  O    12.53600025    19.84499931    15.76000023
  C    12.27499962    19.61199951    17.10199928
  H    11.74300003    20.40600014    17.49399948
  H    13.18000031    19.41200066    17.71599960
  H    11.53299999    18.84700012    17.17300034
  C    13.47999954    19.13100052    13.58500004
  H    12.61499977    18.81999969    13.08800030
  H    14.30900002    18.68700027    13.06099987
  O    13.60599995    20.54800034    13.47000027
  H    13.22999954    20.86599922    14.27000046
  C    14.70938969    10.12726307    17.14644623
  H    13.81838989     9.52326298    17.36144638
  H    14.98239040    10.53326321    18.16544724
  O    14.31738949    11.11126328    16.19944572
  C    13.17238998    11.94626331    16.46344566
  H    13.34838963    12.88826370    15.96544552
  H    13.10739040    12.02126312    17.58244705
  H    12.24639034    11.47226334    16.20644569
  C    15.82938957     9.25526333    16.54844666
  H    15.34939003     8.45326328    15.88044548
  H    16.42438889     8.86426353    17.37144661
  O    16.53838921    10.17326355    15.81644535
  H    15.88938999    10.85826302    15.76944542

