# HF/6-31G(d)

title

0 1
  C    13.43799973    18.83499908    15.08699989
  H    13.12600040    17.79800034    15.25000000
  H    14.44099998    18.95499992    15.45499992
  O    12.53600025    19.84499931    15.76000023
  C    12.27499962    19.61199951    17.10199928
  H    11.74300003    20.40600014    17.49399948
  H    13.18000031    19.41200066    17.71599960
  H    11.53299999    18.84700012    17.17300034
  C    13.47999954    19.13100052    13.58500004
  H    12.61499977    18.81999969    13.08800030
  H    14.30900002    18.68700027    13.06099987
  O    13.60599995    20.54800034    13.47000027
  H    13.22999954    20.86599922    14.27000046
  C    14.83028126     9.53403473    17.23929787
  H    13.93928146     8.93003464    17.45429802
  H    15.10328197     9.94003487    18.25829887
  O    14.43828106    10.51803493    16.29229927
  C    13.29328156    11.35303497    16.55629730
  H    13.46928120    12.29503536    16.05829811
  H    13.22828197    11.42803478    17.67529869
  H    12.36728191    10.87903500    16.29929924
  C    15.95028114     8.66203499    16.64129829
  H    15.47028160     7.86003494    15.97329903
  H    16.54528236     8.27103519    17.46429825
  O    16.65928268     9.58003521    15.90929890
  H    16.01028252    10.26503468    15.86229897

